16
eti-3dp_neutral_scf_g09.log	Energy: -808877.3032785
C         -0.07675        1.85793       -0.84048
H         -0.17799        1.53203       -1.88011
H          0.83483        2.45444       -0.75806
C          0.01146        0.65753        0.10442
O          0.05161        1.16050        1.46516
H          0.76695        0.57192        1.83095
P          1.68920       -0.27330       -0.09639
P         -1.52266       -0.38455       -0.06458
O          2.00059       -0.53782        1.41531
O         -1.56086       -1.50350        0.96005
O         -2.72143        0.71261        0.42851
O          2.65623        0.73982       -0.74393
O          1.48873       -1.55721       -0.92266
O         -1.84917       -0.67913       -1.52412
H         -0.94529        2.48389       -0.59895
H         -3.11049        1.05044       -0.38959
