%nproc=8
%Mem=4GB
#P B3LYP/LANL2DZ
# Opt
# SCRF=(Solvent=Ethanol)
# Gfinput IOP(6/7=3)  Pop=Full  Density  Test
# Units(Ang,Deg)

3-tio2.pdb

0 1
Ti          1.01806         1.28564        -0.01243
Ti          3.74019         1.22378        -0.13295
O           2.45142        -0.07676        -0.24110
O           2.52575         2.57959         0.09912
O          -0.16410         1.15010         1.34427
O          -0.22983         1.49316        -1.29309
O           5.37184         1.13241         0.14026
Ti         -1.72590         1.36648         0.07436
O          -2.68745        -0.09647        -0.09836
H          -3.22717        -0.88613        -0.19008
O          -2.59021         2.88268         0.29583
H          -3.07864         3.70086         0.41884

