9
e-3-tio2_neutral_scf_g09.log	Energy: -392829.8786438
Ti         2.72699        0.40126       -0.04770
Ti         0.00525       -0.00264        0.00200
Ti        -2.71650       -0.40654        0.05170
O         -1.59713        1.04668       -0.03927
O         -1.18885       -1.43879       -0.09027
O          1.23052        1.48085        0.09802
O          1.50492       -1.04572        0.03183
O          3.77282       -0.85076        0.04539
O         -3.76558        0.82953       -0.06217
