19
etidronate_neutral_scf_g09.log	Energy: -809772.9959309
C          0.02640        0.80416        0.14419
C          0.00303        1.95251       -0.87016
H         -0.01477        1.57511       -1.89670
H         -0.87216        2.58124       -0.69369
H          0.90858        2.54767       -0.73747
O          0.01024        1.37999        1.43643
H          0.12059        0.66428        2.08173
P         -1.46432       -0.28297       -0.09094
P          1.61343       -0.16664       -0.10037
O         -1.70689       -0.82227        1.40777
H         -2.23866       -1.63205        1.42243
O         -2.75008        0.66832       -0.34412
H         -3.01830        0.63790       -1.27462
O          1.37276       -1.08775       -1.38538
H          0.43907       -1.41309       -1.45014
O          1.50828       -1.12954        1.21896
H          2.39492       -1.31128        1.56573
O          2.85196        0.64138       -0.15505
O         -1.30284       -1.33083       -1.15259
