%chk=w-etidronate-mep.chk
%nproc=8
%Mem=4GB
#P B3LYP/6-31G(d,p) scrf=(solvent=water)
# Pop=chelp
# Gfinput IOP(6/7=3) Density  Test

 w-etidronate-opt-g09.log

0  1
C          -0.00171         0.68714        -0.19864
C          -0.00329         1.99159         0.60876
H          -0.00153         1.79093         1.68222
H           0.87947         2.57956         0.35006
H          -0.89289         2.57309         0.35651
O           0.00033         1.04131        -1.57479
H           0.05751         0.22467        -2.09625
P           1.54840        -0.27069         0.19782
P          -1.55891        -0.25671         0.19906
O           1.58979        -1.24737        -1.08514
H           2.46196        -1.63979        -1.25035
O           2.76224         0.75085        -0.13124
H           3.19615         1.06439         0.67770
O          -1.46472        -1.40360        -0.93067
H          -2.29615        -1.88381        -1.07259
O          -2.74980         0.68445        -0.36881
H          -3.28402         1.05140         0.35282
O          -1.74432        -0.67801         1.61405
O           1.61488        -0.88788         1.54984

