%nproc=8
%Mem=4GB
#P B3LYP/6-31G(d,p)
# Opt SCRF=(Solvent=Water)
# Gfinput IOP(6/7=3)  Pop=full  Density  Test
# Units(Ang,Deg)

Title Card Required

0 1
 C                 -0.51362010    0.87661931   -0.01875003
 C                  0.98662990    0.87661931   -0.01875003
 H                  1.38212990   -0.16805969   -0.01869003
 H                  1.38165190    1.39916131   -0.92372803
 H                  1.38166990    1.39924331    0.88617097
 O                 -1.01938873    2.21419103   -0.01875003
 H                 -1.97917366    2.19387134   -0.01874056
 P                 -1.15768222    0.02564522   -1.49300479
 P                 -1.15778172    0.02556743    1.45541634
 O                 -2.84698981   -0.18773736   -1.33550008
 H                 -3.20618464   -0.52136341   -2.16089255
 O                 -0.82906310    0.96589655   -2.88298209
 H                 -0.78445898    0.39454974   -3.65315954
 O                 -2.52003315   -0.91284890    1.02211989
 H                 -2.86834564   -1.35122339    1.80193154
 O                 -1.61300522    1.18335198    2.62861987
 H                 -1.47074768    0.82266811    3.50683963
 O                 -0.09440790   -0.86827720    2.02134735
 O                 -0.49491627   -1.31331123   -1.62693361

 1 2 1.0 6 1.0 8 1.0 9 1.0
 2 3 1.0 4 1.0 5 1.0
 3
 4
 5
 6 7 1.0
 7
 8 10 1.0 12 1.0 19 2.0
 9 14 1.0 16 1.0 18 2.0
 10 11 1.0
 11
 12 13 1.0
 13
 14 15 1.0
 15
 16 17 1.0
 17
 18
 19

