%nproc=8
%Mem=4GB
#P B3LYP/6-31G(d,p)
# Opt=tight SCRF=(Solvent=Water)
# Gfinput IOP(6/7=3)  Pop=full  Density  Test
# Units(Ang,Deg)

peg-1.xyz

0  1
O           0.00000         0.00000         0.00000
H           0.00000         0.00000         0.94700
C           1.30108         0.00000        -0.45999
C           1.30108         0.00000        -1.95999
H           1.80548         0.87365        -0.10333
H           1.80548        -0.87365        -0.10333
O           2.60216         0.00000        -2.41999
H           0.79668        -0.87365        -2.31666
H           0.79668         0.87365        -2.31666
H           2.60217         0.00000        -3.36699

