%nprocshared=8
%mem=4GB
#p opt=tight b3lyp/6-31g(d,p) scrf=(solvent=water)
geom=connectivity # density gfinput iop(6/7=3) pop=full test
units=(ang,deg)

peg-6.xyz

0 1
 O                  0.00000000    0.00000000    0.00000000
 H                  0.00000000    0.00000000    0.94700000
 C                  1.30108000    0.00000000   -0.45999000
 C                  1.30108000    0.00000000   -1.95999000
 H                  1.80548000    0.87365000   -0.10333000
 H                  1.80548000   -0.87365000   -0.10333000
 C                  2.71530000    0.00000000   -2.45999000
 H                  0.79668000   -0.87365000   -2.31666000
 H                  0.79668000    0.87365000   -2.31666000
 C                  2.71530000    0.00000000   -3.95999000
 H                  3.21970000    0.87365000   -2.10332000
 H                  3.21970000   -0.87365000   -2.10332000
 C                  4.12952000    0.00000000   -4.45998000
 H                  2.21090000   -0.87365000   -4.31666000
 H                  2.21090000    0.87365000   -4.31666000
 C                  4.12953000    0.00000000   -5.95998000
 H                  4.63392000    0.87365000   -4.10332000
 H                  4.63392000   -0.87365000   -4.10332000
 C                  5.54374000    0.00000000   -6.45998000
 H                  3.62513000   -0.87365000   -6.31665000
 H                  3.62513000    0.87365000   -6.31665000
 H                  6.04814000    0.87365000   -6.10331000
 H                  6.04814000   -0.87365000   -6.10331000
 C                  5.54375116    0.00000000   -7.99998000
 H                  5.03933192    0.87364051   -8.35665000
 H                  5.03936976   -0.87366215   -8.35665051
 C                  6.99568097    0.00003108   -8.51330235
 H                  7.50010101   -0.87360699   -8.15662751
 H                  7.50006112    0.87369567   -8.15663606
 O                  6.99569133    0.00002455   -9.94330235
 H                  7.90062948    0.00004144  -10.26375038

 1 2 1.0 3 1.0
 2
 3 4 1.0 5 1.0 6 1.0
 4 7 1.0 8 1.0 9 1.0
 5
 6
 7 10 1.0 11 1.0 12 1.0
 8
 9
 10 13 1.0 14 1.0 15 1.0
 11
 12
 13 16 1.0 17 1.0 18 1.0
 14
 15
 16 19 1.0 20 1.0 21 1.0
 17
 18
 19 22 1.0 23 1.0 24 1.0
 20
 21
 22
 23
 24 25 1.0 26 1.0 27 1.0
 25
 26
 27 28 1.0 29 1.0 30 1.0
 28
 29
 30 31 1.0
 31

