%nproc=8
%Mem=4GB
#P B3LYP/6-31G(d,p) TD=(NStates=10)
# SCRF=(Solvent=Water)
# Gfinput IOP(6/7=3)  Pop=full  Density  Test
# Units(Ang,Deg)

 peg-4_opt_freq_g09.log

0  1
O           0.42007         3.66948        -0.00000
H          -0.12316         4.46873        -0.00000
C          -0.46396         2.54729        -0.00000
C           0.37678         1.27737        -0.00000
H          -1.11784         2.56231         0.88612
H          -1.11784         2.56231        -0.88612
C          -0.47076        -0.00000        -0.00000
H           1.03205         1.29113        -0.88054
H           1.03205         1.29113         0.88054
C           0.37678        -1.27737         0.00000
H          -1.13043        -0.00000         0.87873
H          -1.13043        -0.00000        -0.87873
C          -0.46396        -2.54729         0.00000
H           1.03205        -1.29113        -0.88054
H           1.03205        -1.29113         0.88054
O           0.42007        -3.66948         0.00000
H          -1.11784        -2.56231         0.88612
H          -1.11784        -2.56231        -0.88612
H          -0.12316        -4.46872         0.00000

