%nprocshared=8
%mem=4GB
#p opt=tight b3lyp/6-31g(d,p) scrf=(solvent=water)
geom=connectivity # density gfinput iop(6/7=3) pop=full test
units=(ang,deg)

peg-6.xyz

0 1
 O                  0.00000000    0.00000000    0.00000000
 H                  0.00000000    0.00000000    0.94700000
 C                  1.30108000    0.00000000   -0.45999000
 C                  1.30108000    0.00000000   -1.95999000
 H                  1.80548000    0.87365000   -0.10333000
 H                  1.80548000   -0.87365000   -0.10333000
 C                  2.71530000    0.00000000   -2.45999000
 H                  0.79668000   -0.87365000   -2.31666000
 H                  0.79668000    0.87365000   -2.31666000
 C                  2.71530000    0.00000000   -3.95999000
 H                  3.21970000    0.87365000   -2.10332000
 H                  3.21970000   -0.87365000   -2.10332000
 C                  4.12952000    0.00000000   -4.45998000
 H                  2.21090000   -0.87365000   -4.31666000
 H                  2.21090000    0.87365000   -4.31666000
 C                  4.12953000    0.00000000   -5.95998000
 H                  4.63392000    0.87365000   -4.10332000
 H                  4.63392000   -0.87365000   -4.10332000
 C                  5.54374000    0.00000000   -6.45998000
 H                  3.62513000   -0.87365000   -6.31665000
 H                  3.62513000    0.87365000   -6.31665000
 H                  6.04814000    0.87365000   -6.10331000
 H                  6.04814000   -0.87365000   -6.10331000
 C                  5.54375116    0.00000000   -7.99998000
 H                  5.03933192    0.87364051   -8.35665000
 H                  5.03936976   -0.87366215   -8.35665051
 C                  6.99568097    0.00003108   -8.51330235
 H                  7.50010101   -0.87360699   -8.15662751
 H                  7.50006112    0.87369567   -8.15663606
 C                  6.99569213    0.00002405  -10.05330235
 H                  6.49127156    0.87366216  -10.40997634
 H                  6.49131205   -0.87364050  -10.40996887
 C                  8.44762194    0.00005500  -10.56662470
 H                  8.95204141   -0.87358397  -10.20995127
 H                  8.95200267    0.87371868  -10.20995701
 C                  8.44763310    0.00005044  -12.10662470
 H                  7.94321452    0.87369028  -12.46329729
 H                  7.94325103   -0.87361237  -12.46329262
 C                  9.89956291    0.00007890  -12.61994705
 H                 10.40398061   -0.87356139  -12.26327437
 H                 10.40394540    0.87374126  -12.26327861
 C                  9.89957407    0.00007567  -14.15994705
 H                  9.39515727    0.87371684  -14.51661889
 H                  9.39519022   -0.87358582  -14.51661573
 C                 11.35150388    0.00010162  -14.67326940
 H                 11.85591981   -0.87354000  -14.31659746
 H                 11.85588814    0.87376266  -14.31660021
 O                 11.35151424    0.00009984  -16.10326940
 H                 12.25645239    0.00011479  -16.42371743

 1 2 1.0 3 1.0
 2
 3 4 1.0 5 1.0 6 1.0
 4 7 1.0 8 1.0 9 1.0
 5
 6
 7 10 1.0 11 1.0 12 1.0
 8
 9
 10 13 1.0 14 1.0 15 1.0
 11
 12
 13 16 1.0 17 1.0 18 1.0
 14
 15
 16 19 1.0 20 1.0 21 1.0
 17
 18
 19 22 1.0 23 1.0 24 1.0
 20
 21
 22
 23
 24 25 1.0 26 1.0 27 1.0
 25
 26
 27 28 1.0 29 1.0 30 1.0
 28
 29
 30 31 1.0 32 1.0 33 1.0
 31
 32
 33 34 1.0 35 1.0 36 1.0
 34
 35
 36 37 1.0 38 1.0 39 1.0
 37
 38
 39 40 1.0 41 1.0 42 1.0
 40
 41
 42 43 1.0 44 1.0 45 1.0
 43
 44
 45 46 1.0 47 1.0 48 1.0
 46
 47
 48 49 1.0
 49

