%nproc=8
%Mem=4GB
#P B3LYP/6-31G(d,p) TD=(NStates=10)
# SCRF=(Solvent=Water)
# Gfinput IOP(6/7=3)  Pop=full  Density  Test
# Units(Ang,Deg)

 peg-3_opt_freq_g09.log

0  1
O          -1.50711         2.66693         0.00000
H          -2.42835         2.95877         0.00000
C          -1.50711         1.23889         0.00000
C          -0.05993         0.76370         0.00000
H          -2.02898         0.84528         0.88622
H          -2.02898         0.84528        -0.88622
C           0.05993        -0.76370         0.00000
H           0.44446         1.18158        -0.88073
H           0.44446         1.18158         0.88073
C           1.50711        -1.23889         0.00000
H          -0.44446        -1.18158         0.88073
H          -0.44446        -1.18158        -0.88073
O           1.50711        -2.66693         0.00000
H           2.02898        -0.84528        -0.88622
H           2.02898        -0.84528         0.88622
H           2.42835        -2.95877         0.00000

