%nproc=8
%Mem=4GB
#P B3LYP/6-31G(d,p) TD=(NStates=10)
# SCRF=(Solvent=Water)
# Gfinput IOP(6/7=3)  Pop=full  Density  Test
# Units(Ang,Deg)

 peg-2_opt_freq_g09.log

0  1
O           0.40461         2.38576        -0.00000
H          -0.13520         3.18733        -0.00000
C          -0.48465         1.26888        -0.00000
C           0.35793        -0.00000         0.00000
H          -1.13795         1.28666         0.88610
H          -1.13795         1.28666        -0.88610
C          -0.48465        -1.26888         0.00000
H           1.00834        -0.00000        -0.88271
H           1.00834        -0.00000         0.88271
O           0.40461        -2.38576         0.00000
H          -1.13795        -1.28666         0.88610
H          -1.13795        -1.28666        -0.88610
H          -0.13520        -3.18733         0.00000

