%nproc=8
%Mem=4GB
#P B3LYP/6-31G(d,p) TD=(NStates=10)
# SCRF=(Solvent=Water)
# Gfinput IOP(6/7=3)  Pop=full  Density  Test
# Units(Ang,Deg)

 peg-6_opt_freq_g09.log

0  1
O           0.00000         4.95304         0.43078
H           0.00000         5.75195        -0.11300
C           0.00000         3.83011        -0.45275
C           0.00000         2.55964         0.38712
H          -0.88609         3.84515        -1.10670
H           0.88609         3.84515        -1.10670
C           0.00000         1.28184        -0.45992
H           0.88042         2.57352         1.04286
H          -0.88042         2.57352         1.04286
C           0.00000         0.00000         0.38198
H          -0.87847         1.28108        -1.12036
H           0.87847         1.28108        -1.12036
C           0.00000        -1.28184        -0.45992
H           0.87830         0.00000         1.04254
H          -0.87830         0.00000         1.04254
C           0.00000        -2.55964         0.38712
H          -0.87847        -1.28108        -1.12036
H           0.87847        -1.28108        -1.12036
C           0.00000        -3.83011        -0.45275
H           0.88042        -2.57352         1.04286
H          -0.88042        -2.57352         1.04286
O           0.00000        -4.95304         0.43078
H          -0.88609        -3.84515        -1.10670
H           0.88609        -3.84515        -1.10670
H           0.00000        -5.75195        -0.11300

