%nproc=8
%Mem=4GB
#P B3LYP/6-31G(d,p) TD=(NStates=10)
# SCRF=(Solvent=Water)
# Gfinput IOP(6/7=3)  Pop=full  Density  Test
# Units(Ang,Deg)

peg-1.xyz

0  1
O           0.72584        -1.65027        -0.00000
H           1.64621        -1.94315        -0.00000
C           0.72584        -0.22639        -0.00000
C          -0.72584         0.22639        -0.00000
H           1.23099         0.18163         0.88782
H           1.23099         0.18163        -0.88782
O          -0.72584         1.65027         0.00000
H          -1.23099        -0.18163        -0.88782
H          -1.23099        -0.18163         0.88782
H          -1.64621         1.94315        -0.00000

