%nproc=8
%Mem=4GB
#P B3LYP/6-31G(d,p)
# Opt
# Gfinput IOP(6/7=3)  Pop=full  Density  Test
# Units(Ang,Deg)

 alendronate-1-opt-g09.log

0  1
C           0.14541        -0.13637         0.37995
O           0.00137        -0.21761         1.78415
H           0.76352         0.22540         2.18840
P           1.64539        -1.12037        -0.15431
P           0.36006         1.65967        -0.14185
O           2.60331        -0.95788         1.13027
H           3.51288        -1.24010         0.95243
O           1.27746        -2.69897        -0.11139
H           1.14649        -3.04007        -1.00882
O           0.86161         1.60514        -1.65980
H           1.50065         0.86411        -1.81775
O           1.65694         2.00340         0.79788
H           1.63283         2.93761         1.05558
O          -0.77938         2.57707         0.08197
O           2.21712        -0.70730        -1.47858
C          -1.10672        -0.76349        -0.27254
C          -2.44560        -0.16559         0.18494
H          -1.09363        -1.83191        -0.02887
H          -1.00646        -0.67673        -1.36238
C          -3.62831        -0.95313        -0.38463
H          -2.48280        -0.19140         1.27994
H          -2.52834         0.88233        -0.11024
H          -3.60188        -0.90918        -1.48155
H          -3.51622        -2.02084        -0.11378
N          -4.89279        -0.35647         0.05257
H          -5.67593        -0.87011        -0.34410
H          -4.97923        -0.44275         1.06326

