25
w-risedronate-3dp_neutral_scf_g09.log	Energy: -963935.7007421
C          0.34401       -0.81685       -0.79732
H          0.18502       -0.42380       -1.80609
H          0.10652       -1.88524       -0.83502
C         -0.72798       -0.18407        0.12339
O         -0.45089       -0.54928        1.50739
H         -1.38040       -0.80428        1.79039
C          1.79732       -0.64509       -0.42568
C          2.36088       -1.28439        0.68795
C          2.67521        0.11002       -1.21688
C          3.71914       -1.13039        0.95998
H          1.72703       -1.88200        1.33407
N          3.98634        0.26637       -0.98010
H          2.28209        0.62611       -2.09148
C          4.49071       -0.34905        0.10016
H          4.17713       -1.61272        1.81851
H          5.55605       -0.21532        0.28196
P         -0.67888        1.68546        0.08109
P         -2.43929       -0.99552       -0.23769
O         -1.84705        2.32882        0.81227
O          0.67663        1.88771        1.06107
O         -0.32090        2.20643       -1.30282
O         -2.93123       -1.14432        1.24251
O         -2.13975       -2.35232       -0.90779
O         -3.28137       -0.04581       -1.10617
H          0.61546        1.13242        1.67605
