26
ale-1p-2dp_neutral_scf_g09.log	Energy: -893565.9535541
C          3.42399       -1.08266       -0.43204
C          2.28545       -0.29034        0.19446
H          3.36680       -2.14776       -0.20111
H          3.46679       -0.95978       -1.51567
C          0.92959       -0.78613       -0.33085
H          2.30609       -0.40779        1.28332
H          2.41432        0.77354       -0.01847
H          0.87426       -0.63401       -1.41400
H          0.86396       -1.86337       -0.14587
N          4.76242       -0.60922        0.09646
H          5.54037       -1.12217       -0.32710
H          4.90840        0.38587       -0.09734
H          4.82690       -0.73535        1.11066
C         -0.29961       -0.11832        0.31289
O         -0.17564       -0.20847        1.74717
H         -1.09783       -0.37767        2.03475
P         -1.88823       -1.06283       -0.09774
P         -0.49297        1.68565       -0.18927
O         -2.68490       -1.01217        1.19768
O         -1.80035        2.21563        0.35752
O         -2.48320       -0.66965       -1.42985
O         -0.11661        1.87603       -1.64780
O          0.73545        2.41292        0.70251
H          1.32767        2.81357        0.05048
O         -1.38012       -2.65142       -0.23120
H         -1.21027       -2.84097       -1.16485
