%nproc=8
%Mem=4GB
#P B3LYP/6-31G(d,p)
# Opt SCRF=(Solvent=Water)
# Gfinput IOP(6/7=3)  Pop=full  Density  Test
# Units(Ang,Deg)

pre-ale-1-1p-2dp.log

-1 1
 C                 -3.55128800   -0.88837000    0.46636100
 C                 -2.35036800   -0.25690000   -0.22200900
 H                 -3.57297800   -1.97328000    0.34888100
 H                 -3.59287800   -0.64916000    1.53043100
 C                 -1.03913800   -0.80884900    0.36056100
 H                 -2.37940800   -0.47621000   -1.29462900
 H                 -2.37761800    0.83270000   -0.11762900
 H                 -1.00455800   -0.63201900    1.44057100
 H                 -1.00149800   -1.89293900    0.20260100
 N                 -4.84623800   -0.37565000   -0.12816900
 H                 -5.66277800   -0.79534000    0.32453100
 H                 -4.92618800    0.64017000   -0.02616900
 H                 -4.90601800   -0.58740000   -1.12817900
 C                  0.22688200   -0.20018900   -0.26401900
 O                  0.09018200   -0.31366900   -1.69895900
 H                  0.99784200   -0.28849900   -2.04299900
 P                  1.72291200   -1.25339900    0.20295100
 P                  0.37156100    1.62078100    0.19542100
 O                  2.78159200   -0.62641900   -0.93151900
 O                  1.96171100    1.93893100   -0.32069900
 O                  2.21352200   -0.94825900    1.60079100
 O                  0.31887100    1.79713100    1.69481100
 O                 -0.50765383    2.45502290   -0.69645611
 H                 -0.37068000    3.38512526   -0.50216827
 O                  1.46273240   -2.67842459   -0.20451884
 H                  2.20947335   -3.22573640    0.04930733

